
Version,
  9.3;                                    !- Version Identifier

Timestep,
  1;                                      !- Number of Timesteps per Hour

LifeCycleCost:Parameters,
  Life Cycle Cost Parameters,             !- Name
  EndOfYear,                              !- Discounting Convention
  ConstantDollar,                         !- Inflation Approach
  0.03,                                   !- Real Discount Rate
  ,                                       !- Nominal Discount Rate
  ,                                       !- Inflation
  ,                                       !- Base Date Month
  2011,                                   !- Base Date Year
  ,                                       !- Service Date Month
  2011,                                   !- Service Date Year
  25,                                     !- Length of Study Period in Years
  ,                                       !- Tax rate
  None;                                   !- Depreciation Method

LifeCycleCost:UsePriceEscalation,
  U.S. Avg  Commercial-Electricity,       !- Name
  Electricity,                            !- Resource
  2011,                                   !- Escalation Start Year
  January,                                !- Escalation Start Month
  0.9838,                                 !- Year Escalation 1
  0.9730,                                 !- Year Escalation 2
  0.9632,                                 !- Year Escalation 3
  0.9611,                                 !- Year Escalation 4
  0.9571,                                 !- Year Escalation 5
  0.9553,                                 !- Year Escalation 6
  0.9539,                                 !- Year Escalation 7
  0.9521,                                 !- Year Escalation 8
  0.9546,                                 !- Year Escalation 9
  0.9550,                                 !- Year Escalation 10
  0.9553,                                 !- Year Escalation 11
  0.9564,                                 !- Year Escalation 12
  0.9575,                                 !- Year Escalation 13
  0.9596,                                 !- Year Escalation 14
  0.9618,                                 !- Year Escalation 15
  0.9614,                                 !- Year Escalation 16
  0.9618,                                 !- Year Escalation 17
  0.9618,                                 !- Year Escalation 18
  0.9593,                                 !- Year Escalation 19
  0.9589,                                 !- Year Escalation 20
  0.9607,                                 !- Year Escalation 21
  0.9625,                                 !- Year Escalation 22
  0.9650,                                 !- Year Escalation 23
  0.9708,                                 !- Year Escalation 24
  0.9751,                                 !- Year Escalation 25
  0.9762,                                 !- Year Escalation 26
  0.9766,                                 !- Year Escalation 27
  0.9766,                                 !- Year Escalation 28
  0.9769,                                 !- Year Escalation 29
  0.9773;                                 !- Year Escalation 30

LifeCycleCost:UsePriceEscalation,
  U.S. Avg  Commercial-Distillate Oil,    !- Name
  FuelOilNo1,                             !- Resource
  2011,                                   !- Escalation Start Year
  January,                                !- Escalation Start Month
  0.9714,                                 !- Year Escalation 1
  0.9730,                                 !- Year Escalation 2
  0.9942,                                 !- Year Escalation 3
  1.0164,                                 !- Year Escalation 4
  1.0541,                                 !- Year Escalation 5
  1.0928,                                 !- Year Escalation 6
  1.1267,                                 !- Year Escalation 7
  1.1580,                                 !- Year Escalation 8
  1.1792,                                 !- Year Escalation 9
  1.1967,                                 !- Year Escalation 10
  1.2200,                                 !- Year Escalation 11
  1.2333,                                 !- Year Escalation 12
  1.2566,                                 !- Year Escalation 13
  1.2709,                                 !- Year Escalation 14
  1.2826,                                 !- Year Escalation 15
  1.2985,                                 !- Year Escalation 16
  1.3102,                                 !- Year Escalation 17
  1.3250,                                 !- Year Escalation 18
  1.3261,                                 !- Year Escalation 19
  1.3282,                                 !- Year Escalation 20
  1.3324,                                 !- Year Escalation 21
  1.3356,                                 !- Year Escalation 22
  1.3431,                                 !- Year Escalation 23
  1.3510,                                 !- Year Escalation 24
  1.3568,                                 !- Year Escalation 25
  1.3606,                                 !- Year Escalation 26
  1.3637,                                 !- Year Escalation 27
  1.3674,                                 !- Year Escalation 28
  1.3706,                                 !- Year Escalation 29
  1.3743;                                 !- Year Escalation 30

LifeCycleCost:UsePriceEscalation,
  U.S. Avg  Commercial-Residual Oil,      !- Name
  FuelOilNo2,                             !- Resource
  2011,                                   !- Escalation Start Year
  January,                                !- Escalation Start Month
  0.8469,                                 !- Year Escalation 1
  0.8257,                                 !- Year Escalation 2
  0.8681,                                 !- Year Escalation 3
  0.8988,                                 !- Year Escalation 4
  0.9289,                                 !- Year Escalation 5
  0.9604,                                 !- Year Escalation 6
  0.9897,                                 !- Year Escalation 7
  1.0075,                                 !- Year Escalation 8
  1.0314,                                 !- Year Escalation 9
  1.0554,                                 !- Year Escalation 10
  1.0861,                                 !- Year Escalation 11
  1.1278,                                 !- Year Escalation 12
  1.1497,                                 !- Year Escalation 13
  1.1620,                                 !- Year Escalation 14
  1.1743,                                 !- Year Escalation 15
  1.1852,                                 !- Year Escalation 16
  1.1948,                                 !- Year Escalation 17
  1.2037,                                 !- Year Escalation 18
  1.2071,                                 !- Year Escalation 19
  1.2119,                                 !- Year Escalation 20
  1.2139,                                 !- Year Escalation 21
  1.2194,                                 !- Year Escalation 22
  1.2276,                                 !- Year Escalation 23
  1.2365,                                 !- Year Escalation 24
  1.2420,                                 !- Year Escalation 25
  1.2461,                                 !- Year Escalation 26
  1.2509,                                 !- Year Escalation 27
  1.2550,                                 !- Year Escalation 28
  1.2591,                                 !- Year Escalation 29
  1.2638;                                 !- Year Escalation 30

LifeCycleCost:UsePriceEscalation,
  U.S. Avg  Commercial-Natural gas,       !- Name
  NaturalGas,                             !- Resource
  2011,                                   !- Escalation Start Year
  January,                                !- Escalation Start Month
  0.9823,                                 !- Year Escalation 1
  0.9557,                                 !- Year Escalation 2
  0.9279,                                 !- Year Escalation 3
  0.9257,                                 !- Year Escalation 4
  0.9346,                                 !- Year Escalation 5
  0.9412,                                 !- Year Escalation 6
  0.9512,                                 !- Year Escalation 7
  0.9645,                                 !- Year Escalation 8
  0.9856,                                 !- Year Escalation 9
  1.0067,                                 !- Year Escalation 10
  1.0222,                                 !- Year Escalation 11
  1.0410,                                 !- Year Escalation 12
  1.0610,                                 !- Year Escalation 13
  1.0787,                                 !- Year Escalation 14
  1.0942,                                 !- Year Escalation 15
  1.1098,                                 !- Year Escalation 16
  1.1220,                                 !- Year Escalation 17
  1.1308,                                 !- Year Escalation 18
  1.1386,                                 !- Year Escalation 19
  1.1486,                                 !- Year Escalation 20
  1.1619,                                 !- Year Escalation 21
  1.1763,                                 !- Year Escalation 22
  1.1918,                                 !- Year Escalation 23
  1.2118,                                 !- Year Escalation 24
  1.2284,                                 !- Year Escalation 25
  1.2439,                                 !- Year Escalation 26
  1.2605,                                 !- Year Escalation 27
  1.2772,                                 !- Year Escalation 28
  1.2938,                                 !- Year Escalation 29
  1.3115;                                 !- Year Escalation 30

LifeCycleCost:UsePriceEscalation,
  U.S. Avg  Commercial-Coal,              !- Name
  Coal,                                   !- Resource
  2011,                                   !- Escalation Start Year
  January,                                !- Escalation Start Month
  0.9970,                                 !- Year Escalation 1
  1.0089,                                 !- Year Escalation 2
  1.0089,                                 !- Year Escalation 3
  0.9941,                                 !- Year Escalation 4
  0.9941,                                 !- Year Escalation 5
  1.0000,                                 !- Year Escalation 6
  1.0030,                                 !- Year Escalation 7
  1.0059,                                 !- Year Escalation 8
  1.0089,                                 !- Year Escalation 9
  1.0119,                                 !- Year Escalation 10
  1.0148,                                 !- Year Escalation 11
  1.0178,                                 !- Year Escalation 12
  1.0208,                                 !- Year Escalation 13
  1.0267,                                 !- Year Escalation 14
  1.0297,                                 !- Year Escalation 15
  1.0356,                                 !- Year Escalation 16
  1.0415,                                 !- Year Escalation 17
  1.0534,                                 !- Year Escalation 18
  1.0564,                                 !- Year Escalation 19
  1.0593,                                 !- Year Escalation 20
  1.0653,                                 !- Year Escalation 21
  1.0712,                                 !- Year Escalation 22
  1.0742,                                 !- Year Escalation 23
  1.0801,                                 !- Year Escalation 24
  1.0831,                                 !- Year Escalation 25
  1.0831,                                 !- Year Escalation 26
  1.0861,                                 !- Year Escalation 27
  1.0890,                                 !- Year Escalation 28
  1.0920,                                 !- Year Escalation 29
  1.0950;                                 !- Year Escalation 30

Building,
  1300 NE 45th,                           !- Name
  90,                                     !- North Axis {deg}
  ,                                       !- Terrain
  ,                                       !- Loads Convergence Tolerance Value {W}
  ,                                       !- Temperature Convergence Tolerance Value {deltaC}
  ,                                       !- Solar Distribution
  ,                                       !- Maximum Number of Warmup Days
  ;                                       !- Minimum Number of Warmup Days

Zone,
  Thermal Zone: Amen_0300,                !- Name
  -0,                                     !- Direction of Relative North {deg}
  21.4820500000004,                       !- X Origin {m}
  21.1264499999995,                       !- Y Origin {m}
  8.4582,                                 !- Z Origin {m}
  ,                                       !- Type
  ,                                       !- Multiplier
  ,                                       !- Ceiling Height {m}
  ,                                       !- Volume {m3}
  ,                                       !- Floor Area {m2}
  ,                                       !- Zone Inside Convection Algorithm
  ;                                       !- Zone Outside Convection Algorithm

BuildingSurface:Detailed,
  Surface 1357,                           !- Name
  Wall,                                   !- Surface Type
  Interior Wall,                          !- Construction Name
  Thermal Zone: Amen_0300,                !- Zone Name
  Surface,                                !- Outside Boundary Condition
  Surface 532,                            !- Outside Boundary Condition Object
  NoSun,                                  !- Sun Exposure
  NoWind,                                 !- Wind Exposure
  ,                                       !- View Factor to Ground
  ,                                       !- Number of Vertices
  -6.9992875, -4.1211500000001, 2.9464,   !- X,Y,Z Vertex 1 {m}
  -6.9992875, -4.12115000000007, 0,       !- X,Y,Z Vertex 2 {m}
  -1.39540855685347e-31, -4.12115000000007, 2.73516527859232e-46, !- X,Y,Z Vertex 3 {m}
  5.77529135625809e-15, -4.1211500000001, 2.9464; !- X,Y,Z Vertex 4 {m}

BuildingSurface:Detailed,
  Surface 1358,                           !- Name
  Wall,                                   !- Surface Type
  SEC-2015 Comm Group R AG ExtWall SteelFrame: R-19 + R-8.5 CI, !- Construction Name
  Thermal Zone: Amen_0300,                !- Zone Name
  Outdoors,                               !- Outside Boundary Condition
  ,                                       !- Outside Boundary Condition Object
  SunExposed,                             !- Sun Exposure
  WindExposed,                            !- Wind Exposure
  ,                                       !- View Factor to Ground
  ,                                       !- Number of Vertices
  2.62629844485586e-27, -4.12115000000007, 2.94743106811127, !- X,Y,Z Vertex 1 {m}
  5.77529135626072e-15, -4.1211500000001, 2.9464, !- X,Y,Z Vertex 2 {m}
  5.77529135626072e-15, -1.5015757526271e-13, 2.9464, !- X,Y,Z Vertex 3 {m}
  2.62629844485586e-27, 3.67015743990624e-59, 2.94743106811127; !- X,Y,Z Vertex 4 {m}

BuildingSurface:Detailed,
  Surface 1359,                           !- Name
  Wall,                                   !- Surface Type
  SEC-2015 Comm Group R AG ExtWall SteelFrame: R-19 + R-8.5 CI, !- Construction Name
  Thermal Zone: Amen_0300,                !- Zone Name
  Outdoors,                               !- Outside Boundary Condition
  ,                                       !- Outside Boundary Condition Object
  SunExposed,                             !- Sun Exposure
  WindExposed,                            !- Wind Exposure
  ,                                       !- View Factor to Ground
  ,                                       !- Number of Vertices
  -6.9992875, -4.95718889822549e-29, 2.94743106811127, !- X,Y,Z Vertex 1 {m}
  -6.99928750000001, -1.67483449331485e-13, 2.9464, !- X,Y,Z Vertex 2 {m}
  -6.9992875, -4.1211500000001, 2.9464,   !- X,Y,Z Vertex 3 {m}
  -6.9992875, -4.12115000000007, 2.94743106811127; !- X,Y,Z Vertex 4 {m}

BuildingSurface:Detailed,
  Surface 1891,                           !- Name
  Floor,                                  !- Surface Type
  Interior Floor,                         !- Construction Name
  Thermal Zone: Amen_0300,                !- Zone Name
  Surface,                                !- Outside Boundary Condition
  Surface 1861,                           !- Outside Boundary Condition Object
  NoSun,                                  !- Sun Exposure
  NoWind,                                 !- Wind Exposure
  ,                                       !- View Factor to Ground
  ,                                       !- Number of Vertices
  -2.67270999800507e-93, 2.26912667010934e-93, 6.83791319648049e-47, !- X,Y,Z Vertex 1 {m}
  -1.39540855685347e-31, -4.12115000000007, 2.05137395894427e-46, !- X,Y,Z Vertex 2 {m}
  -3.49885000000021, -4.12114999999988, 6.83791319648079e-47, !- X,Y,Z Vertex 3 {m}
  -3.49885000000021, -2.26912667010944e-93, -6.83791319648079e-47; !- X,Y,Z Vertex 4 {m}

BuildingSurface:Detailed,
  Surface 584,                            !- Name
  Floor,                                  !- Surface Type
  Interior Floor,                         !- Construction Name
  Thermal Zone: Amen_0300,                !- Zone Name
  Surface,                                !- Outside Boundary Condition
  Surface 1892,                           !- Outside Boundary Condition Object
  NoSun,                                  !- Sun Exposure
  NoWind,                                 !- Wind Exposure
  ,                                       !- View Factor to Ground
  ,                                       !- Number of Vertices
  -3.49885000000021, 0, 0,                !- X,Y,Z Vertex 1 {m}
  -3.49885000000021, -4.12114999999988, 0, !- X,Y,Z Vertex 2 {m}
  -6.9992875, -4.12115000000007, 0,       !- X,Y,Z Vertex 3 {m}
  -6.9992875, 0, 0;                       !- X,Y,Z Vertex 4 {m}

BuildingSurface:Detailed,
  Surface 585,                            !- Name
  Wall,                                   !- Surface Type
  Interior Wall,                          !- Construction Name
  Thermal Zone: Amen_0300,                !- Zone Name
  Surface,                                !- Outside Boundary Condition
  Surface 629,                            !- Outside Boundary Condition Object
  NoSun,                                  !- Sun Exposure
  NoWind,                                 !- Wind Exposure
  ,                                       !- View Factor to Ground
  ,                                       !- Number of Vertices
  5.77529135625809e-15, -4.1211500000001, 2.9464, !- X,Y,Z Vertex 1 {m}
  -1.39540855685347e-31, -4.12115000000007, 2.73516527859232e-46, !- X,Y,Z Vertex 2 {m}
  0, 0, 0,                                !- X,Y,Z Vertex 3 {m}
  5.77529135625809e-15, -1.5015757526271e-13, 2.9464; !- X,Y,Z Vertex 4 {m}

BuildingSurface:Detailed,
  Surface 586,                            !- Name
  Wall,                                   !- Surface Type
  SEC-2015 Comm Group R AG ExtWall SteelFrame: R-19 + R-8.5 CI, !- Construction Name
  Thermal Zone: Amen_0300,                !- Zone Name
  Outdoors,                               !- Outside Boundary Condition
  ,                                       !- Outside Boundary Condition Object
  SunExposed,                             !- Sun Exposure
  WindExposed,                            !- Wind Exposure
  ,                                       !- View Factor to Ground
  ,                                       !- Number of Vertices
  -6.9992875, -4.12115000000007, 2.94743106811127, !- X,Y,Z Vertex 1 {m}
  -6.9992875, -4.1211500000001, 2.9464,   !- X,Y,Z Vertex 2 {m}
  5.77529135625809e-15, -4.1211500000001, 2.9464, !- X,Y,Z Vertex 3 {m}
  0, -4.12115000000007, 2.94743106811127; !- X,Y,Z Vertex 4 {m}

BuildingSurface:Detailed,
  Surface 587,                            !- Name
  Wall,                                   !- Surface Type
  Interior Wall,                          !- Construction Name
  Thermal Zone: Amen_0300,                !- Zone Name
  Surface,                                !- Outside Boundary Condition
  Surface 558,                            !- Outside Boundary Condition Object
  NoSun,                                  !- Sun Exposure
  NoWind,                                 !- Wind Exposure
  ,                                       !- View Factor to Ground
  ,                                       !- Number of Vertices
  -6.99928750000001, -1.67483449331485e-13, 2.9464, !- X,Y,Z Vertex 1 {m}
  -6.9992875, -5.66535874082913e-29, -7.92417634223775e-29, !- X,Y,Z Vertex 2 {m}
  -6.9992875, -4.12115000000007, 7.92417634223775e-29, !- X,Y,Z Vertex 3 {m}
  -6.9992875, -4.1211500000001, 2.9464;   !- X,Y,Z Vertex 4 {m}

BuildingSurface:Detailed,
  Surface 588,                            !- Name
  Ceiling,                                !- Surface Type
  Interior Ceiling,                       !- Construction Name
  Thermal Zone: Amen_0300,                !- Zone Name
  Surface,                                !- Outside Boundary Condition
  Surface 657,                            !- Outside Boundary Condition Object
  NoSun,                                  !- Sun Exposure
  NoWind,                                 !- Wind Exposure
  ,                                       !- View Factor to Ground
  ,                                       !- Number of Vertices
  0, -4.12115000000007, 2.94743106811127, !- X,Y,Z Vertex 1 {m}
  0, 0, 2.94743106811127,                 !- X,Y,Z Vertex 2 {m}
  -6.9992875, 0, 2.94743106811127,        !- X,Y,Z Vertex 3 {m}
  -6.9992875, -4.12115000000007, 2.94743106811127; !- X,Y,Z Vertex 4 {m}

BuildingSurface:Detailed,
  Surface 589,                            !- Name
  Wall,                                   !- Surface Type
  SEC-2015 Comm Group R AG ExtWall SteelFrame: R-19 + R-8.5 CI, !- Construction Name
  Thermal Zone: Amen_0300,                !- Zone Name
  Outdoors,                               !- Outside Boundary Condition
  ,                                       !- Outside Boundary Condition Object
  SunExposed,                             !- Sun Exposure
  WindExposed,                            !- Wind Exposure
  ,                                       !- View Factor to Ground
  ,                                       !- Number of Vertices
  0, 0, 2.94743106811127,                 !- X,Y,Z Vertex 1 {m}
  0, 0, 0,                                !- X,Y,Z Vertex 2 {m}
  -6.9992875, 0, 0,                       !- X,Y,Z Vertex 3 {m}
  -6.9992875, 0, 2.94743106811127;        !- X,Y,Z Vertex 4 {m}

FenestrationSurface:Detailed,
  Sub Surface 79,                         !- Name
  Window,                                 !- Surface Type
  SEC-2015 Glazing - Fixed Metal Frame - SEW, !- Construction Name
  Surface 589,                            !- Building Surface Name
  ,                                       !- Outside Boundary Condition Object
  ,                                       !- View Factor to Ground
  ,                                       !- Frame and Divider Name
  ,                                       !- Multiplier
  ,                                       !- Number of Vertices
  -0.2936875, 0, 2.66803106811119,        !- X,Y,Z Vertex 1 {m}
  -0.2936875, 0, 0.190500000000012,       !- X,Y,Z Vertex 2 {m}
  -6.86593749999999, 0, 0.190500000000012, !- X,Y,Z Vertex 3 {m}
  -6.86593749999999, 0, 2.66803106811119; !- X,Y,Z Vertex 4 {m}

ZoneControl:Thermostat,
  Thermal Zone: Amen_0300 Thermostat,     !- Name
  Thermal Zone: Amen_0300,                !- Zone or ZoneList Name
  Thermal Zone: Amen_0300 Thermostat Schedule, !- Control Type Schedule Name
  ThermostatSetpoint:DualSetpoint,        !- Control 1 Object Type
  Thermostat Setpoint Dual Setpoint 1;    !- Control 1 Name

Schedule:Compact,
  Thermal Zone: Amen_0300 Thermostat Schedule, !- Name
  Thermal Zone: Amen_0300 Thermostat Schedule Type Limits, !- Schedule Type Limits Name
  Through: 12/31,                         !- Field 1
  For: AllDays,                           !- Field 2
  Until: 24:00,                           !- Field 3
  4;                                      !- Field 4

ScheduleTypeLimits,
  Thermal Zone: Amen_0300 Thermostat Schedule Type Limits, !- Name
  0,                                      !- Lower Limit Value {BasedOnField A3}
  4,                                      !- Upper Limit Value {BasedOnField A3}
  DISCRETE;                               !- Numeric Type

ThermostatSetpoint:DualSetpoint,
  Thermostat Setpoint Dual Setpoint 1,    !- Name
  SEC2015-MF-Apartment_HtgSetp,           !- Heating Setpoint Temperature Schedule Name
  SEC2015-MF-Apartment_ClgSetp;           !- Cooling Setpoint Temperature Schedule Name

ScheduleTypeLimits,
  Temperature 25,                         !- Name
  ,                                       !- Lower Limit Value {BasedOnField A3}
  ,                                       !- Upper Limit Value {BasedOnField A3}
  Continuous,                             !- Numeric Type
  temperature;                            !- Unit Type

Schedule:Day:Interval,
  MidriseApartment Apartment HtgSetp Default Schedule, !- Name
  Temperature 25,                         !- Schedule Type Limits Name
  No,                                     !- Interpolate to Timestep
  08:00,                                  !- Time 1 {hh:mm}
  21.1,                                   !- Value Until Time 1
  23:00,                                  !- Time 2 {hh:mm}
  22.2222222222223,                       !- Value Until Time 2
  24:00,                                  !- Time 3 {hh:mm}
  21.1111111111111;                       !- Value Until Time 3

Schedule:Week:Daily,
  SEC2015-MF-Apartment_HtgSetp Week Rule - Jan1-Dec31, !- Name
  MidriseApartment Apartment HtgSetp Default Schedule, !- Sunday Schedule:Day Name
  MidriseApartment Apartment HtgSetp Default Schedule, !- Monday Schedule:Day Name
  MidriseApartment Apartment HtgSetp Default Schedule, !- Tuesday Schedule:Day Name
  MidriseApartment Apartment HtgSetp Default Schedule, !- Wednesday Schedule:Day Name
  MidriseApartment Apartment HtgSetp Default Schedule, !- Thursday Schedule:Day Name
  MidriseApartment Apartment HtgSetp Default Schedule, !- Friday Schedule:Day Name
  MidriseApartment Apartment HtgSetp Default Schedule, !- Saturday Schedule:Day Name
  MidriseApartment Apartment HtgSetp Default Schedule, !- Holiday Schedule:Day Name
  Schedule Day 5,                         !- SummerDesignDay Schedule:Day Name
  Schedule Day 4,                         !- WinterDesignDay Schedule:Day Name
  MidriseApartment Apartment HtgSetp Default Schedule, !- CustomDay1 Schedule:Day Name
  MidriseApartment Apartment HtgSetp Default Schedule; !- CustomDay2 Schedule:Day Name

Schedule:Year,
  SEC2015-MF-Apartment_HtgSetp,           !- Name
  Temperature 25,                         !- Schedule Type Limits Name
  SEC2015-MF-Apartment_HtgSetp Week Rule - Jan1-Dec31, !- Schedule:Week Name 1
  1,                                      !- Start Month 1
  1,                                      !- Start Day 1
  12,                                     !- End Month 1
  31;                                     !- End Day 1

Schedule:Day:Interval,
  Schedule Day 5,                         !- Name
  Temperature 25,                         !- Schedule Type Limits Name
  No,                                     !- Interpolate to Timestep
  24:00,                                  !- Time 1 {hh:mm}
  21.1000003814697;                       !- Value Until Time 1

Schedule:Day:Interval,
  Schedule Day 4,                         !- Name
  Temperature 25,                         !- Schedule Type Limits Name
  No,                                     !- Interpolate to Timestep
  24:00,                                  !- Time 1 {hh:mm}
  21.1000003814697;                       !- Value Until Time 1

ScheduleTypeLimits,
  Temperature 18,                         !- Name
  ,                                       !- Lower Limit Value {BasedOnField A3}
  ,                                       !- Upper Limit Value {BasedOnField A3}
  Continuous,                             !- Numeric Type
  temperature;                            !- Unit Type

Schedule:Day:Interval,
  MidriseApartment Apartment ClgSetp Default Schedule, !- Name
  Temperature 18,                         !- Schedule Type Limits Name
  No,                                     !- Interpolate to Timestep
  10:00,                                  !- Time 1 {hh:mm}
  25.5555555555556,                       !- Value Until Time 1
  16:00,                                  !- Time 2 {hh:mm}
  26.6666666666667,                       !- Value Until Time 2
  24:00,                                  !- Time 3 {hh:mm}
  25.5555555555556;                       !- Value Until Time 3

Schedule:Week:Daily,
  SEC2015-MF-Apartment_ClgSetp Week Rule - Jan1-Dec31, !- Name
  MidriseApartment Apartment ClgSetp Default Schedule, !- Sunday Schedule:Day Name
  MidriseApartment Apartment ClgSetp Default Schedule, !- Monday Schedule:Day Name
  MidriseApartment Apartment ClgSetp Default Schedule, !- Tuesday Schedule:Day Name
  MidriseApartment Apartment ClgSetp Default Schedule, !- Wednesday Schedule:Day Name
  MidriseApartment Apartment ClgSetp Default Schedule, !- Thursday Schedule:Day Name
  MidriseApartment Apartment ClgSetp Default Schedule, !- Friday Schedule:Day Name
  MidriseApartment Apartment ClgSetp Default Schedule, !- Saturday Schedule:Day Name
  MidriseApartment Apartment ClgSetp Default Schedule, !- Holiday Schedule:Day Name
  Schedule Day 3,                         !- SummerDesignDay Schedule:Day Name
  Schedule Day 2,                         !- WinterDesignDay Schedule:Day Name